AMOSTRA/GOI/Cargas.dss
! ==========================================================
! CARGAS — mes 01
! BT: UCBT_tab agregada por transformador (kW = ENE/730 h)
! MT: UCMT_tab individual no PAC do consumidor
! fator de escala aplicado: 1
! 0 cargas de MT descartadas por PAC ausente da rede.
! ==========================================================
New Load.BT_2412038_1 Bus1=2412038-8901628.1.4 Phases=1 Model=8 zipv=(0.5,0,0.5,1,0,0,0) kv=0.1270 pf=0.92 kW=0.597598 Daily=RES-Tipo2
New Load.BT_2412038_2 Bus1=2412038-8901628.2.4 Phases=1 Model=8 zipv=(0.5,0,0.5,1,0,0,0) kv=0.1270 pf=0.92 kW=0.597598 Daily=RES-Tipo2
New Load.BT_2412038_3 Bus1=2412038-8901628.3.4 Phases=1 Model=8 zipv=(0.5,0,0.5,1,0,0,0) kv=0.1270 pf=0.92 kW=0.597598 Daily=RES-Tipo2
New Load.BT_2411836_1 Bus1=2411836-8907669.1.4 Phases=1 Model=8 zipv=(0.5,0,0.5,1,0,0,0) kv=0.1100 pf=0.92 kW=0.565397 Daily=RUR-Tipo2
New Load.BT_2411836_2 Bus1=2411836-8907669.2.4 Phases=1 Model=8 zipv=(0.5,0,0.5,1,0,0,0) kv=0.1100 pf=0.92 kW=0.565397 Daily=RUR-Tipo2
New Load.BT_2411591_1 Bus1=2411591-8905061.1.4 Phases=1 Model=8 zipv=(0.5,0,0.5,1,0,0,0) kv=0.1100 pf=0.92 kW=0.087959 Daily=RES-Tipo6
New Load.BT_2411591_2 Bus1=2411591-8905061.2.4 Phases=1 Model=8 zipv=(0.5,0,0.5,1,0,0,0) kv=0.1100 pf=0.92 kW=0.087959 Daily=RES-Tipo6
New Load.BT_2411610_1 Bus1=2411610-8904962.1.4 Phases=1 Model=8 zipv=(0.5,0,0.5,1,0,0,0) kv=0.1270 pf=0.92 kW=1.785041 Daily=RES-Tipo2
New Load.BT_2411610_2 Bus1=2411610-8904962.2.4 Phases=1 Model=8 zipv=(0.5,0,0.5,1,0,0,0) kv=0.1270 pf=0.92 kW=1.785041 Daily=RES-Tipo2
New Load.BT_2411610_3 Bus1=2411610-8904962.3.4 Phases=1 Model=8 zipv=(0.5,0,0.5,1,0,0,0) kv=0.1270 pf=0.92 kW=1.785041 Daily=RES-Tipo2
New Load.BT_2410989_1 Bus1=2410989-8905110v.1.4 Phases=1 Model=8 zipv=(0.5,0,0.5,1,0,0,0) kv=0.1100 pf=0.92 kW=2.576753 Daily=RUR-Tipo10
New Load.BT_2410989_2 Bus1=2410989-8905110v.2.4 Phases=1 Model=8 zipv=(0.5,0,0.5,1,0,0,0) kv=0.1100 pf=0.92 kW=2.576753 Daily=RUR-Tipo10
New Load.BT_2411064_1 Bus1=2411064-8905111v.1.4 Phases=1 Model=8 zipv=(0.5,0,0.5,1,0,0,0) kv=0.1100 pf=0.92 kW=0.076363 Daily=RUR-Tipo3
New Load.BT_2411064_2 Bus1=2411064-8905111v.2.4 Phases=1 Model=8 zipv=(0.5,0,0.5,1,0,0,0) kv=0.1100 pf=0.92 kW=0.076363 Daily=RUR-Tipo3
New Load.BT_2410849_1 Bus1=2410849-8903101.1.4 Phases=1 Model=8 zipv=(0.5,0,0.5,1,0,0,0) kv=0.1100 pf=0.92 kW=0.960164 Daily=RES-Tipo9
New Load.BT_2410849_2 Bus1=2410849-8903101.2.4 Phases=1 Model=8 zipv=(0.5,0,0.5,1,0,0,0) kv=0.1100 pf=0.92 kW=0.960164 Daily=RES-Tipo9
New Load.BT_2411723_1 Bus1=2411723-8905121v.1.4 Phases=1 Model=8 zipv=(0.5,0,0.5,1,0,0,0) kv=0.1100 pf=0.92 kW=0.050068 Daily=RUR-Tipo1
New Load.BT_2411723_2 Bus1=2411723-8905121v.2.4 Phases=1 Model=8 zipv=(0.5,0,0.5,1,0,0,0) kv=0.1100 pf=0.92 kW=0.050068 Daily=RUR-Tipo1
New Load.BT_2411709_1 Bus1=2411709-8905087.1.4 Phases=1 Model=8 zipv=(0.5,0,0.5,1,0,0,0) kv=0.1270 pf=0.92 kW=0.139845 Daily=RES-Tipo2
New Load.BT_2411709_2 Bus1=2411709-8905087.2.4 Phases=1 Model=8 zipv=(0.5,0,0.5,1,0,0,0) kv=0.1270 pf=0.92 kW=0.139845 Daily=RES-Tipo2
New Load.BT_2411709_3 Bus1=2411709-8905087.3.4 Phases=1 Model=8 zipv=(0.5,0,0.5,1,0,0,0) kv=0.1270 pf=0.92 kW=0.139845 Daily=RES-Tipo2
New Load.BT_2411220_1 Bus1=2411220-8904910v.1.4 Phases=1 Model=8 zipv=(0.5,0,0.5,1,0,0,0) kv=0.1100 pf=0.92 kW=0.030952 Daily=RES-Tipo2
New Load.BT_2411220_2 Bus1=2411220-8904910v.2.4 Phases=1 Model=8 zipv=(0.5,0,0.5,1,0,0,0) kv=0.1100 pf=0.92 kW=0.030952 Daily=RES-Tipo2
New Load.BT_2411099_1 Bus1=2411099-8905409.1.4 Phases=1 Model=8 zipv=(0.5,0,0.5,1,0,0,0) kv=0.1100 pf=0.92 kW=0.052959 Daily=RUR-Tipo2
New Load.BT_2411099_2 Bus1=2411099-8905409.2.4 Phases=1 Model=8 zipv=(0.5,0,0.5,1,0,0,0) kv=0.1100 pf=0.92 kW=0.052959 Daily=RUR-Tipo2
New Load.BT_2411978_1 Bus1=2411978-8904903v.1.4 Phases=1 Model=8 zipv=(0.5,0,0.5,1,0,0,0) kv=0.1100 pf=0.92 kW=0.007534 Daily=RUR-Tipo2
New Load.BT_2411978_2 Bus1=2411978-8904903v.2.4 Phases=1 Model=8 zipv=(0.5,0,0.5,1,0,0,0) kv=0.1100 pf=0.92 kW=0.007534 Daily=RUR-Tipo2
New Load.BT_2411316_1 Bus1=2411316-8904909v.1.4 Phases=1 Model=8 zipv=(0.5,0,0.5,1,0,0,0) kv=0.1100 pf=0.92 kW=0.209370 Daily=RUR-Tipo2
New Load.BT_2411316_2 Bus1=2411316-8904909v.2.4 Phases=1 Model=8 zipv=(0.5,0,0.5,1,0,0,0) kv=0.1100 pf=0.92 kW=0.209370 Daily=RUR-Tipo2
New Load.BT_2411076_1 Bus1=2411076-8907366.1.4 Phases=1 Model=8 zipv=(0.5,0,0.5,1,0,0,0) kv=0.1100 pf=0.92 kW=0.087918 Daily=RES-Tipo2
New Load.BT_2411076_2 Bus1=2411076-8907366.2.4 Phases=1 Model=8 zipv=(0.5,0,0.5,1,0,0,0) kv=0.1100 pf=0.92 kW=0.087918 Daily=RES-Tipo2
New Load.BT_2411279_1 Bus1=2411279-8907864.1.4 Phases=1 Model=8 zipv=(0.5,0,0.5,1,0,0,0) kv=0.1100 pf=0.92 kW=0.248212 Daily=RES-Tipo2
New Load.BT_2411279_2 Bus1=2411279-8907864.2.4 Phases=1 Model=8 zipv=(0.5,0,0.5,1,0,0,0) kv=0.1100 pf=0.92 kW=0.248212 Daily=RES-Tipo2
New Load.BT_2411618_1 Bus1=2411618-8905072v.1.4 Phases=1 Model=8 zipv=(0.5,0,0.5,1,0,0,0) kv=0.1100 pf=0.92 kW=0.010603 Daily=RES-Tipo9
New Load.BT_2411618_2 Bus1=2411618-8905072v.2.4 Phases=1 Model=8 zipv=(0.5,0,0.5,1,0,0,0) kv=0.1100 pf=0.92 kW=0.010603 Daily=RES-Tipo9
New Load.BT_2412039_1 Bus1=2412039-8905084v.1.4 Phases=1 Model=8 zipv=(0.5,0,0.5,1,0,0,0) kv=0.1100 pf=0.92 kW=0.112260 Daily=RUR-Tipo10
New Load.BT_2412039_2 Bus1=2412039-8905084v.2.4 Phases=1 Model=8 zipv=(0.5,0,0.5,1,0,0,0) kv=0.1100 pf=0.92 kW=0.112260 Daily=RUR-Tipo10
New Load.BT_2412300_1 Bus1=2412300-8905085v.1.4 Phases=1 Model=8 zipv=(0.5,0,0.5,1,0,0,0) kv=0.1100 pf=0.92 kW=0.125212 Daily=RUR-Tipo1
New Load.BT_2412300_2 Bus1=2412300-8905085v.2.4 Phases=1 Model=8 zipv=(0.5,0,0.5,1,0,0,0) kv=0.1100 pf=0.92 kW=0.125212 Daily=RUR-Tipo1
New Load.BT_2411027_1 Bus1=2411027-8899910.1.4 Phases=1 Model=8 zipv=(0.5,0,0.5,1,0,0,0) kv=0.1100 pf=0.92 kW=0.787014 Daily=RES-Tipo2
New Load.BT_2411027_2 Bus1=2411027-8899910.2.4 Phases=1 Model=8 zipv=(0.5,0,0.5,1,0,0,0) kv=0.1100 pf=0.92 kW=0.787014 Daily=RES-Tipo2
New Load.BT_3143412_1 Bus1=3143412-8905605v.1.4 Phases=1 Model=8 zipv=(0.5,0,0.5,1,0,0,0) kv=0.1270 pf=0.92 kW=0.010694 Daily=RES-Tipo5
New Load.BT_3143412_2 Bus1=3143412-8905605v.2.4 Phases=1 Model=8 zipv=(0.5,0,0.5,1,0,0,0) kv=0.1270 pf=0.92 kW=0.010694 Daily=RES-Tipo5
New Load.BT_3143412_3 Bus1=3143412-8905605v.3.4 Phases=1 Model=8 zipv=(0.5,0,0.5,1,0,0,0) kv=0.1270 pf=0.92 kW=0.010694 Daily=RES-Tipo5
New Load.BT_2412254_1 Bus1=2412254-8900035.1.4 Phases=1 Model=8 zipv=(0.5,0,0.5,1,0,0,0) kv=0.1270 pf=0.92 kW=0.090607 Daily=RES-Tipo2
New Load.BT_2412254_2 Bus1=2412254-8900035.2.4 Phases=1 Model=8 zipv=(0.5,0,0.5,1,0,0,0) kv=0.1270 pf=0.92 kW=0.090607 Daily=RES-Tipo2
New Load.BT_2412254_3 Bus1=2412254-8900035.3.4 Phases=1 Model=8 zipv=(0.5,0,0.5,1,0,0,0) kv=0.1270 pf=0.92 kW=0.090607 Daily=RES-Tipo2
New Load.BT_2411118_1 Bus1=2411118-8902296.1.4 Phases=1 Model=8 zipv=(0.5,0,0.5,1,0,0,0) kv=0.1270 pf=0.92 kW=1.404849 Daily=RES-Tipo2
New Load.BT_2411118_2 Bus1=2411118-8902296.2.4 Phases=1 Model=8 zipv=(0.5,0,0.5,1,0,0,0) kv=0.1270 pf=0.92 kW=1.404849 Daily=RES-Tipo2
New Load.BT_2411118_3 Bus1=2411118-8902296.3.4 Phases=1 Model=8 zipv=(0.5,0,0.5,1,0,0,0) kv=0.1270 pf=0.92 kW=1.404849 Daily=RES-Tipo2
New Load.BT_2411679_1 Bus1=2411679-8906325.1.4 Phases=1 Model=8 zipv=(0.5,0,0.5,1,0,0,0) kv=0.1270 pf=0.92 kW=3.114324 Daily=RES-Tipo2
New Load.BT_2411679_2 Bus1=2411679-8906325.2.4 Phases=1 Model=8 zipv=(0.5,0,0.5,1,0,0,0) kv=0.1270 pf=0.92 kW=3.114324 Daily=RES-Tipo2
New Load.BT_2411679_3 Bus1=2411679-8906325.3.4 Phases=1 Model=8 zipv=(0.5,0,0.5,1,0,0,0) kv=0.1270 pf=0.92 kW=3.114324 Daily=RES-Tipo2
New Load.BT_2411239_1 Bus1=2411239-8905050v.1.4 Phases=1 Model=8 zipv=(0.5,0,0.5,1,0,0,0) kv=0.1100 pf=0.92 kW=0.104466 Daily=RUR-Tipo2
New Load.BT_2411239_2 Bus1=2411239-8905050v.2.4 Phases=1 Model=8 zipv=(0.5,0,0.5,1,0,0,0) kv=0.1100 pf=0.92 kW=0.104466 Daily=RUR-Tipo2
New Load.BT_2410825_1 Bus1=2410825-8905051v.1.4 Phases=1 Model=8 zipv=(0.5,0,0.5,1,0,0,0) kv=0.1100 pf=0.92 kW=0.001767 Daily=RUR-Tipo6
New Load.BT_2410825_2 Bus1=2410825-8905051v.2.4 Phases=1 Model=8 zipv=(0.5,0,0.5,1,0,0,0) kv=0.1100 pf=0.92 kW=0.001767 Daily=RUR-Tipo6
New Load.BT_2411706_1 Bus1=2411706-8905055v.1.4 Phases=1 Model=8 zipv=(0.5,0,0.5,1,0,0,0) kv=0.1100 pf=0.92 kW=0.269644 Daily=RUR-Tipo5
New Load.BT_2411706_2 Bus1=2411706-8905055v.2.4 Phases=1 Model=8 zipv=(0.5,0,0.5,1,0,0,0) kv=0.1100 pf=0.92 kW=0.269644 Daily=RUR-Tipo5
New Load.BT_2961204_1 Bus1=2961204-8905679v.1.4 Phases=1 Model=8 zipv=(0.5,0,0.5,1,0,0,0) kv=0.1270 pf=0.92 kW=0.022370 Daily=RUR-Tipo3
New Load.BT_2961204_2 Bus1=2961204-8905679v.2.4 Phases=1 Model=8 zipv=(0.5,0,0.5,1,0,0,0) kv=0.1270 pf=0.92 kW=0.022370 Daily=RUR-Tipo3
New Load.BT_2961204_3 Bus1=2961204-8905679v.3.4 Phases=1 Model=8 zipv=(0.5,0,0.5,1,0,0,0) kv=0.1270 pf=0.92 kW=0.022370 Daily=RUR-Tipo3
New Load.BT_2412289_1 Bus1=2412289-8899984.1.4 Phases=1 Model=8 zipv=(0.5,0,0.5,1,0,0,0) kv=0.1100 pf=0.92 kW=0.053801 Daily=RUR-Tipo2
New Load.BT_2412289_2 Bus1=2412289-8899984.2.4 Phases=1 Model=8 zipv=(0.5,0,0.5,1,0,0,0) kv=0.1100 pf=0.92 kW=0.053801 Daily=RUR-Tipo2
New Load.BT_2411311_1 Bus1=2411311-8905160v.1.4 Phases=1 Model=8 zipv=(0.5,0,0.5,1,0,0,0) kv=0.1100 pf=0.92 kW=0.065884 Daily=RES-Tipo5
New Load.BT_2411311_2 Bus1=2411311-8905160v.2.4 Phases=1 Model=8 zipv=(0.5,0,0.5,1,0,0,0) kv=0.1100 pf=0.92 kW=0.065884 Daily=RES-Tipo5
New Load.BT_2411577_1 Bus1=2411577-8904951v.1.4 Phases=1 Model=8 zipv=(0.5,0,0.5,1,0,0,0) kv=0.1100 pf=0.92 kW=0.006808 Daily=RES-Tipo2
New Load.BT_2411577_2 Bus1=2411577-8904951v.2.4 Phases=1 Model=8 zipv=(0.5,0,0.5,1,0,0,0) kv=0.1100 pf=0.92 kW=0.006808 Daily=RES-Tipo2
New Load.BT_2411214_1 Bus1=2411214-8905225v.1.4 Phases=1 Model=8 zipv=(0.5,0,0.5,1,0,0,0) kv=0.1100 pf=0.92 kW=0.038884 Daily=RES-Tipo3
New Load.BT_2411214_2 Bus1=2411214-8905225v.2.4 Phases=1 Model=8 zipv=(0.5,0,0.5,1,0,0,0) kv=0.1100 pf=0.92 kW=0.038884 Daily=RES-Tipo3
New Load.BT_2411388_1 Bus1=2411388-8905234v.1.4 Phases=1 Model=8 zipv=(0.5,0,0.5,1,0,0,0) kv=0.1100 pf=0.92 kW=0.013253 Daily=RUR-Tipo2
New Load.BT_2411388_2 Bus1=2411388-8905234v.2.4 Phases=1 Model=8 zipv=(0.5,0,0.5,1,0,0,0) kv=0.1100 pf=0.92 kW=0.013253 Daily=RUR-Tipo2
New Load.BT_2411120_1 Bus1=2411120-8902290.1.4 Phases=1 Model=8 zipv=(0.5,0,0.5,1,0,0,0) kv=0.1270 pf=0.92 kW=0.916749 Daily=RES-Tipo2
New Load.BT_2411120_2 Bus1=2411120-8902290.2.4 Phases=1 Model=8 zipv=(0.5,0,0.5,1,0,0,0) kv=0.1270 pf=0.92 kW=0.916749 Daily=RES-Tipo2
New Load.BT_2411120_3 Bus1=2411120-8902290.3.4 Phases=1 Model=8 zipv=(0.5,0,0.5,1,0,0,0) kv=0.1270 pf=0.92 kW=0.916749 Daily=RES-Tipo2
New Load.BT_3106892_1 Bus1=3106892-8906884v.1.4 Phases=1 Model=8 zipv=(0.5,0,0.5,1,0,0,0) kv=0.1100 pf=0.92 kW=0.172473 Daily=RUR-Tipo3
New Load.BT_3106892_2 Bus1=3106892-8906884v.2.4 Phases=1 Model=8 zipv=(0.5,0,0.5,1,0,0,0) kv=0.1100 pf=0.92 kW=0.172473 Daily=RUR-Tipo3
New Load.BT_2410988_1 Bus1=2410988-8899932.1.4 Phases=1 Model=8 zipv=(0.5,0,0.5,1,0,0,0) kv=0.1270 pf=0.92 kW=0.373475 Daily=RES-Tipo6
New Load.BT_2410988_2 Bus1=2410988-8899932.2.4 Phases=1 Model=8 zipv=(0.5,0,0.5,1,0,0,0) kv=0.1270 pf=0.92 kW=0.373475 Daily=RES-Tipo6
New Load.BT_2410988_3 Bus1=2410988-8899932.3.4 Phases=1 Model=8 zipv=(0.5,0,0.5,1,0,0,0) kv=0.1270 pf=0.92 kW=0.373475 Daily=RES-Tipo6
New Load.BT_2412073_1 Bus1=2412073-8901921.1.4 Phases=1 Model=8 zipv=(0.5,0,0.5,1,0,0,0) kv=0.1270 pf=0.92 kW=1.743963 Daily=RES-Tipo2
New Load.BT_2412073_2 Bus1=2412073-8901921.2.4 Phases=1 Model=8 zipv=(0.5,0,0.5,1,0,0,0) kv=0.1270 pf=0.92 kW=1.743963 Daily=RES-Tipo2
New Load.BT_2412073_3 Bus1=2412073-8901921.3.4 Phases=1 Model=8 zipv=(0.5,0,0.5,1,0,0,0) kv=0.1270 pf=0.92 kW=1.743963 Daily=RES-Tipo2
New Load.BT_2412009_1 Bus1=2412009-8906708v.1.4 Phases=1 Model=8 zipv=(0.5,0,0.5,1,0,0,0) kv=0.1100 pf=0.92 kW=0.135685 Daily=RUR-Tipo2
New Load.BT_2412009_2 Bus1=2412009-8906708v.2.4 Phases=1 Model=8 zipv=(0.5,0,0.5,1,0,0,0) kv=0.1100 pf=0.92 kW=0.135685 Daily=RUR-Tipo2
New Load.BT_2410981_1 Bus1=2410981-8904689.1.4 Phases=1 Model=8 zipv=(0.5,0,0.5,1,0,0,0) kv=0.1100 pf=0.92 kW=0.064027 Daily=RES-Tipo9
New Load.BT_2410981_2 Bus1=2410981-8904689.2.4 Phases=1 Model=8 zipv=(0.5,0,0.5,1,0,0,0) kv=0.1100 pf=0.92 kW=0.064027 Daily=RES-Tipo9
New Load.BT_2410868_1 Bus1=2410868-8906790.1.4 Phases=1 Model=8 zipv=(0.5,0,0.5,1,0,0,0) kv=0.1100 pf=0.92 kW=0.010603 Daily=RES-Tipo9
New Load.BT_2410868_2 Bus1=2410868-8906790.2.4 Phases=1 Model=8 zipv=(0.5,0,0.5,1,0,0,0) kv=0.1100 pf=0.92 kW=0.010603 Daily=RES-Tipo9
New Load.BT_2411390_1 Bus1=2411390-8906676v.1.4 Phases=1 Model=8 zipv=(0.5,0,0.5,1,0,0,0) kv=0.1100 pf=0.92 kW=0.173952 Daily=RUR-Tipo2
New Load.BT_2411390_2 Bus1=2411390-8906676v.2.4 Phases=1 Model=8 zipv=(0.5,0,0.5,1,0,0,0) kv=0.1100 pf=0.92 kW=0.173952 Daily=RUR-Tipo2
New Load.BT_2411620_1 Bus1=2411620-8906542v.1.4 Phases=1 Model=8 zipv=(0.5,0,0.5,1,0,0,0) kv=0.1100 pf=0.92 kW=0.029055 Daily=RUR-Tipo3
New Load.BT_2411620_2 Bus1=2411620-8906542v.2.4 Phases=1 Model=8 zipv=(0.5,0,0.5,1,0,0,0) kv=0.1100 pf=0.92 kW=0.029055 Daily=RUR-Tipo3
New Load.BT_2412240_1 Bus1=2412240-8908719.1.4 Phases=1 Model=8 zipv=(0.5,0,0.5,1,0,0,0) kv=0.1270 pf=0.92 kW=0.949151 Daily=RES-Tipo6
New Load.BT_2412240_2 Bus1=2412240-8908719.2.4 Phases=1 Model=8 zipv=(0.5,0,0.5,1,0,0,0) kv=0.1270 pf=0.92 kW=0.949151 Daily=RES-Tipo6
New Load.BT_2412240_3 Bus1=2412240-8908719.3.4 Phases=1 Model=8 zipv=(0.5,0,0.5,1,0,0,0) kv=0.1270 pf=0.92 kW=0.949151 Daily=RES-Tipo6
New Load.BT_2411367_1 Bus1=2411367-8898929.1.4 Phases=1 Model=8 zipv=(0.5,0,0.5,1,0,0,0) kv=0.1270 pf=0.92 kW=1.419461 Daily=RES-Tipo2
New Load.BT_2411367_2 Bus1=2411367-8898929.2.4 Phases=1 Model=8 zipv=(0.5,0,0.5,1,0,0,0) kv=0.1270 pf=0.92 kW=1.419461 Daily=RES-Tipo2
New Load.BT_2411367_3 Bus1=2411367-8898929.3.4 Phases=1 Model=8 zipv=(0.5,0,0.5,1,0,0,0) kv=0.1270 pf=0.92 kW=1.419461 Daily=RES-Tipo2
New Load.BT_2411880_1 Bus1=2411880-8906313v.1.4 Phases=1 Model=8 zipv=(0.5,0,0.5,1,0,0,0) kv=0.1100 pf=0.92 kW=0.056137 Daily=RUR-Tipo1
New Load.BT_2411880_2 Bus1=2411880-8906313v.2.4 Phases=1 Model=8 zipv=(0.5,0,0.5,1,0,0,0) kv=0.1100 pf=0.92 kW=0.056137 Daily=RUR-Tipo1
New Load.BT_2411223_1 Bus1=2411223-8906329v.1.4 Phases=1 Model=8 zipv=(0.5,0,0.5,1,0,0,0) kv=0.1100 pf=0.92 kW=0.001925 Daily=RES-Tipo5
New Load.BT_2411223_2 Bus1=2411223-8906329v.2.4 Phases=1 Model=8 zipv=(0.5,0,0.5,1,0,0,0) kv=0.1100 pf=0.92 kW=0.001925 Daily=RES-Tipo5
New Load.BT_2411969_1 Bus1=2411969-8906297v.1.4 Phases=1 Model=8 zipv=(0.5,0,0.5,1,0,0,0) kv=0.1100 pf=0.92 kW=0.069753 Daily=RUR-Tipo2
New Load.BT_2411969_2 Bus1=2411969-8906297v.2.4 Phases=1 Model=8 zipv=(0.5,0,0.5,1,0,0,0) kv=0.1100 pf=0.92 kW=0.069753 Daily=RUR-Tipo2
New Load.BT_2410818_1 Bus1=2410818-8906310v.1.4 Phases=1 Model=8 zipv=(0.5,0,0.5,1,0,0,0) kv=0.1100 pf=0.92 kW=0.139308 Daily=RUR-Tipo5
New Load.BT_2410818_2 Bus1=2410818-8906310v.2.4 Phases=1 Model=8 zipv=(0.5,0,0.5,1,0,0,0) kv=0.1100 pf=0.92 kW=0.139308 Daily=RUR-Tipo5
New Load.BT_2412077_1 Bus1=2412077-8902299.1.4 Phases=1 Model=8 zipv=(0.5,0,0.5,1,0,0,0) kv=0.1270 pf=0.92 kW=5.052046 Daily=RES-Tipo9
New Load.BT_2412077_2 Bus1=2412077-8902299.2.4 Phases=1 Model=8 zipv=(0.5,0,0.5,1,0,0,0) kv=0.1270 pf=0.92 kW=5.052046 Daily=RES-Tipo9
New Load.BT_2412077_3 Bus1=2412077-8902299.3.4 Phases=1 Model=8 zipv=(0.5,0,0.5,1,0,0,0) kv=0.1270 pf=0.92 kW=5.052046 Daily=RES-Tipo9
New Load.BT_2410958_1 Bus1=2410958-8901331.1.4 Phases=1 Model=8 zipv=(0.5,0,0.5,1,0,0,0) kv=0.1270 pf=0.92 kW=0.282000 Daily=RES-Tipo6
New Load.BT_2410958_2 Bus1=2410958-8901331.2.4 Phases=1 Model=8 zipv=(0.5,0,0.5,1,0,0,0) kv=0.1270 pf=0.92 kW=0.282000 Daily=RES-Tipo6
New Load.BT_2410958_3 Bus1=2410958-8901331.3.4 Phases=1 Model=8 zipv=(0.5,0,0.5,1,0,0,0) kv=0.1270 pf=0.92 kW=0.282000 Daily=RES-Tipo6
New Load.BT_2411674_1 Bus1=2411674-8906425v.1.4 Phases=1 Model=8 zipv=(0.5,0,0.5,1,0,0,0) kv=0.1100 pf=0.92 kW=0.020548 Daily=RUR-Tipo9
New Load.BT_2411674_2 Bus1=2411674-8906425v.2.4 Phases=1 Model=8 zipv=(0.5,0,0.5,1,0,0,0) kv=0.1100 pf=0.92 kW=0.020548 Daily=RUR-Tipo9
New Load.BT_2411431_1 Bus1=2411431-8906427v.1.4 Phases=1 Model=8 zipv=(0.5,0,0.5,1,0,0,0) kv=0.1100 pf=0.92 kW=0.262459 Daily=RUR-Tipo4
New Load.BT_2411431_2 Bus1=2411431-8906427v.2.4 Phases=1 Model=8 zipv=(0.5,0,0.5,1,0,0,0) kv=0.1100 pf=0.92 kW=0.262459 Daily=RUR-Tipo4
New Load.BT_2411696_1 Bus1=2411696-8906094v.1.4 Phases=1 Model=8 zipv=(0.5,0,0.5,1,0,0,0) kv=0.1100 pf=0.92 kW=0.020548 Daily=RES-Tipo5
New Load.BT_2411696_2 Bus1=2411696-8906094v.2.4 Phases=1 Model=8 zipv=(0.5,0,0.5,1,0,0,0) kv=0.1100 pf=0.92 kW=0.020548 Daily=RES-Tipo5
New Load.BT_2411882_1 Bus1=2411882-8906428v.1.4 Phases=1 Model=8 zipv=(0.5,0,0.5,1,0,0,0) kv=0.1100 pf=0.92 kW=0.013253 Daily=RES-Tipo9
New Load.BT_2411882_2 Bus1=2411882-8906428v.2.4 Phases=1 Model=8 zipv=(0.5,0,0.5,1,0,0,0) kv=0.1100 pf=0.92 kW=0.013253 Daily=RES-Tipo9
New Load.BT_2411864_1 Bus1=2411864-8906429v.1.4 Phases=1 Model=8 zipv=(0.5,0,0.5,1,0,0,0) kv=0.1100 pf=0.92 kW=0.038315 Daily=RES-Tipo3
New Load.BT_2411864_2 Bus1=2411864-8906429v.2.4 Phases=1 Model=8 zipv=(0.5,0,0.5,1,0,0,0) kv=0.1100 pf=0.92 kW=0.038315 Daily=RES-Tipo3
New Load.BT_2411222_1 Bus1=2411222-8906435v.1.4 Phases=1 Model=8 zipv=(0.5,0,0.5,1,0,0,0) kv=0.1100 pf=0.92 kW=0.054836 Daily=RUR-Tipo10
New Load.BT_2411222_2 Bus1=2411222-8906435v.2.4 Phases=1 Model=8 zipv=(0.5,0,0.5,1,0,0,0) kv=0.1100 pf=0.92 kW=0.054836 Daily=RUR-Tipo10
New Load.BT_2411326_1 Bus1=2411326-8906392v.1.4 Phases=1 Model=8 zipv=(0.5,0,0.5,1,0,0,0) kv=0.1100 pf=0.92 kW=0.052164 Daily=RUR-Tipo2
New Load.BT_2411326_2 Bus1=2411326-8906392v.2.4 Phases=1 Model=8 zipv=(0.5,0,0.5,1,0,0,0) kv=0.1100 pf=0.92 kW=0.052164 Daily=RUR-Tipo2
New Load.BT_2411467_1 Bus1=2411467-8906394v.1.4 Phases=1 Model=8 zipv=(0.5,0,0.5,1,0,0,0) kv=0.1100 pf=0.92 kW=0.114007 Daily=RES-Tipo2
New Load.BT_2411467_2 Bus1=2411467-8906394v.2.4 Phases=1 Model=8 zipv=(0.5,0,0.5,1,0,0,0) kv=0.1100 pf=0.92 kW=0.114007 Daily=RES-Tipo2
New Load.BT_2410867_1 Bus1=2410867-8906397v.1.4 Phases=1 Model=8 zipv=(0.5,0,0.5,1,0,0,0) kv=0.1100 pf=0.92 kW=0.524151 Daily=RUR-Tipo4
New Load.BT_2410867_2 Bus1=2410867-8906397v.2.4 Phases=1 Model=8 zipv=(0.5,0,0.5,1,0,0,0) kv=0.1100 pf=0.92 kW=0.524151 Daily=RUR-Tipo4
New Load.BT_2412242_1 Bus1=2412242-8906399v.1.4 Phases=1 Model=8 zipv=(0.5,0,0.5,1,0,0,0) kv=0.1100 pf=0.92 kW=0.014582 Daily=RUR-Tipo2
New Load.BT_2412242_2 Bus1=2412242-8906399v.2.4 Phases=1 Model=8 zipv=(0.5,0,0.5,1,0,0,0) kv=0.1100 pf=0.92 kW=0.014582 Daily=RUR-Tipo2
New Load.BT_2411228_1 Bus1=2411228-8906412v.1.4 Phases=1 Model=8 zipv=(0.5,0,0.5,1,0,0,0) kv=0.1100 pf=0.92 kW=0.020658 Daily=RES-Tipo5
New Load.BT_2411228_2 Bus1=2411228-8906412v.2.4 Phases=1 Model=8 zipv=(0.5,0,0.5,1,0,0,0) kv=0.1100 pf=0.92 kW=0.020658 Daily=RES-Tipo5
New Load.BT_2410993_1 Bus1=2410993-8903142.1.4 Phases=1 Model=8 zipv=(0.5,0,0.5,1,0,0,0) kv=0.1100 pf=0.92 kW=0.138555 Daily=RUR-Tipo2
New Load.BT_2410993_2 Bus1=2410993-8903142.2.4 Phases=1 Model=8 zipv=(0.5,0,0.5,1,0,0,0) kv=0.1100 pf=0.92 kW=0.138555 Daily=RUR-Tipo2
New Load.BT_2410889_1 Bus1=2410889-8906493v.1.4 Phases=1 Model=8 zipv=(0.5,0,0.5,1,0,0,0) kv=0.1100 pf=0.92 kW=0.081705 Daily=RUR-Tipo2
New Load.BT_2410889_2 Bus1=2410889-8906493v.2.4 Phases=1 Model=8 zipv=(0.5,0,0.5,1,0,0,0) kv=0.1100 pf=0.92 kW=0.081705 Daily=RUR-Tipo2
New Load.BT_2411554_1 Bus1=2411554-8908710v.1.4 Phases=1 Model=8 zipv=(0.5,0,0.5,1,0,0,0) kv=0.1100 pf=0.92 kW=0.071630 Daily=RUR-Tipo2
New Load.BT_2411554_2 Bus1=2411554-8908710v.2.4 Phases=1 Model=8 zipv=(0.5,0,0.5,1,0,0,0) kv=0.1100 pf=0.92 kW=0.071630 Daily=RUR-Tipo2
New Load.BT_2410828_1 Bus1=2410828-8908722v.1.4 Phases=1 Model=8 zipv=(0.5,0,0.5,1,0,0,0) kv=0.1100 pf=0.92 kW=0.939705 Daily=RUR-Tipo2
New Load.BT_2410828_2 Bus1=2410828-8908722v.2.4 Phases=1 Model=8 zipv=(0.5,0,0.5,1,0,0,0) kv=0.1100 pf=0.92 kW=0.939705 Daily=RUR-Tipo2
New Load.BT_2411718_1 Bus1=2411718-8908679v.1.4 Phases=1 Model=8 zipv=(0.5,0,0.5,1,0,0,0) kv=0.1100 pf=0.92 kW=0.153911 Daily=RUR-Tipo2
New Load.BT_2411718_2 Bus1=2411718-8908679v.2.4 Phases=1 Model=8 zipv=(0.5,0,0.5,1,0,0,0) kv=0.1100 pf=0.92 kW=0.153911 Daily=RUR-Tipo2
New Load.BT_2411749_1 Bus1=2411749-8908686v.1.4 Phases=1 Model=8 zipv=(0.5,0,0.5,1,0,0,0) kv=0.1100 pf=0.92 kW=0.065137 Daily=RUR-Tipo2
New Load.BT_2411749_2 Bus1=2411749-8908686v.2.4 Phases=1 Model=8 zipv=(0.5,0,0.5,1,0,0,0) kv=0.1100 pf=0.92 kW=0.065137 Daily=RUR-Tipo2
New Load.BT_2410798_1 Bus1=2410798-8908688v.1.4 Phases=1 Model=8 zipv=(0.5,0,0.5,1,0,0,0) kv=0.1100 pf=0.92 kW=0.014144 Daily=RES-Tipo3
New Load.BT_2410798_2 Bus1=2410798-8908688v.2.4 Phases=1 Model=8 zipv=(0.5,0,0.5,1,0,0,0) kv=0.1100 pf=0.92 kW=0.014144 Daily=RES-Tipo3
New Load.BT_2412215_1 Bus1=2412215-8907571.1.4 Phases=1 Model=8 zipv=(0.5,0,0.5,1,0,0,0) kv=0.1100 pf=0.92 kW=0.039370 Daily=RES-Tipo9
New Load.BT_2412215_2 Bus1=2412215-8907571.2.4 Phases=1 Model=8 zipv=(0.5,0,0.5,1,0,0,0) kv=0.1100 pf=0.92 kW=0.039370 Daily=RES-Tipo9
New Load.BT_2411075_1 Bus1=2411075-8905113.1.4 Phases=1 Model=8 zipv=(0.5,0,0.5,1,0,0,0) kv=0.1270 pf=0.92 kW=0.330731 Daily=RES-Tipo2
New Load.BT_2411075_2 Bus1=2411075-8905113.2.4 Phases=1 Model=8 zipv=(0.5,0,0.5,1,0,0,0) kv=0.1270 pf=0.92 kW=0.330731 Daily=RES-Tipo2
New Load.BT_2411075_3 Bus1=2411075-8905113.3.4 Phases=1 Model=8 zipv=(0.5,0,0.5,1,0,0,0) kv=0.1270 pf=0.92 kW=0.330731 Daily=RES-Tipo2
New Load.BT_2411884_1 Bus1=2411884-8908730v.1.4 Phases=1 Model=8 zipv=(0.5,0,0.5,1,0,0,0) kv=0.1100 pf=0.92 kW=0.068027 Daily=RES-Tipo4
New Load.BT_2411884_2 Bus1=2411884-8908730v.2.4 Phases=1 Model=8 zipv=(0.5,0,0.5,1,0,0,0) kv=0.1100 pf=0.92 kW=0.068027 Daily=RES-Tipo4
New Load.BT_2411683_1 Bus1=2411683-8908852v.1.4 Phases=1 Model=8 zipv=(0.5,0,0.5,1,0,0,0) kv=0.1100 pf=0.92 kW=2.731336 Daily=RES-Tipo2
New Load.BT_2411683_2 Bus1=2411683-8908852v.2.4 Phases=1 Model=8 zipv=(0.5,0,0.5,1,0,0,0) kv=0.1100 pf=0.92 kW=2.731336 Daily=RES-Tipo2
New Load.BT_2410886_1 Bus1=2410886-8908793v.1.4 Phases=1 Model=8 zipv=(0.5,0,0.5,1,0,0,0) kv=0.1100 pf=0.92 kW=0.009945 Daily=RES-Tipo5
New Load.BT_2410886_2 Bus1=2410886-8908793v.2.4 Phases=1 Model=8 zipv=(0.5,0,0.5,1,0,0,0) kv=0.1100 pf=0.92 kW=0.009945 Daily=RES-Tipo5
New Load.BT_2411604_1 Bus1=2411604-8908802v.1.4 Phases=1 Model=8 zipv=(0.5,0,0.5,1,0,0,0) kv=0.1100 pf=0.92 kW=0.020548 Daily=RES-Tipo6
New Load.BT_2411604_2 Bus1=2411604-8908802v.2.4 Phases=1 Model=8 zipv=(0.5,0,0.5,1,0,0,0) kv=0.1100 pf=0.92 kW=0.020548 Daily=RES-Tipo6
New Load.BT_2411887_1 Bus1=2411887-8908808v.1.4 Phases=1 Model=8 zipv=(0.5,0,0.5,1,0,0,0) kv=0.1100 pf=0.92 kW=0.110055 Daily=RUR-Tipo1
New Load.BT_2411887_2 Bus1=2411887-8908808v.2.4 Phases=1 Model=8 zipv=(0.5,0,0.5,1,0,0,0) kv=0.1100 pf=0.92 kW=0.110055 Daily=RUR-Tipo1
New Load.BT_2411700_1 Bus1=2411700-8900965.1.4 Phases=1 Model=8 zipv=(0.5,0,0.5,1,0,0,0) kv=0.1270 pf=0.92 kW=0.587721 Daily=RES-Tipo9
New Load.BT_2411700_2 Bus1=2411700-8900965.2.4 Phases=1 Model=8 zipv=(0.5,0,0.5,1,0,0,0) kv=0.1270 pf=0.92 kW=0.587721 Daily=RES-Tipo9
New Load.BT_2411700_3 Bus1=2411700-8900965.3.4 Phases=1 Model=8 zipv=(0.5,0,0.5,1,0,0,0) kv=0.1270 pf=0.92 kW=0.587721 Daily=RES-Tipo9
New Load.BT_2410778_1 Bus1=2410778-8899979v.1.4 Phases=1 Model=8 zipv=(0.5,0,0.5,1,0,0,0) kv=0.1100 pf=0.92 kW=0.013253 Daily=RUR-Tipo6
New Load.BT_2410778_2 Bus1=2410778-8899979v.2.4 Phases=1 Model=8 zipv=(0.5,0,0.5,1,0,0,0) kv=0.1100 pf=0.92 kW=0.013253 Daily=RUR-Tipo6
New Load.BT_2410785_1 Bus1=2410785-8899995v.1.4 Phases=1 Model=8 zipv=(0.5,0,0.5,1,0,0,0) kv=0.1100 pf=0.92 kW=0.161534 Daily=RUR-Tipo5
New Load.BT_2410785_2 Bus1=2410785-8899995v.2.4 Phases=1 Model=8 zipv=(0.5,0,0.5,1,0,0,0) kv=0.1100 pf=0.92 kW=0.161534 Daily=RUR-Tipo5
New Load.BT_2411682_1 Bus1=2411682-8899997v.1.4 Phases=1 Model=8 zipv=(0.5,0,0.5,1,0,0,0) kv=0.1100 pf=0.92 kW=0.027925 Daily=RES-Tipo5
New Load.BT_2411682_2 Bus1=2411682-8899997v.2.4 Phases=1 Model=8 zipv=(0.5,0,0.5,1,0,0,0) kv=0.1100 pf=0.92 kW=0.027925 Daily=RES-Tipo5
New Load.BT_2410952_1 Bus1=2410952-8905045.1.4 Phases=1 Model=8 zipv=(0.5,0,0.5,1,0,0,0) kv=0.1100 pf=0.92 kW=1.064404 Daily=RUR-Tipo2
New Load.BT_2410952_2 Bus1=2410952-8905045.2.4 Phases=1 Model=8 zipv=(0.5,0,0.5,1,0,0,0) kv=0.1100 pf=0.92 kW=1.064404 Daily=RUR-Tipo2
New Load.BT_2412046_1 Bus1=2412046-8904908.1.4 Phases=1 Model=8 zipv=(0.5,0,0.5,1,0,0,0) kv=0.1100 pf=0.92 kW=0.243925 Daily=RUR-Tipo2
New Load.BT_2412046_2 Bus1=2412046-8904908.2.4 Phases=1 Model=8 zipv=(0.5,0,0.5,1,0,0,0) kv=0.1100 pf=0.92 kW=0.243925 Daily=RUR-Tipo2
New Load.BT_2411846_1 Bus1=2411846-8899920.1.4 Phases=1 Model=8 zipv=(0.5,0,0.5,1,0,0,0) kv=0.1270 pf=0.92 kW=1.201361 Daily=RES-Tipo2
New Load.BT_2411846_2 Bus1=2411846-8899920.2.4 Phases=1 Model=8 zipv=(0.5,0,0.5,1,0,0,0) kv=0.1270 pf=0.92 kW=1.201361 Daily=RES-Tipo2
New Load.BT_2411846_3 Bus1=2411846-8899920.3.4 Phases=1 Model=8 zipv=(0.5,0,0.5,1,0,0,0) kv=0.1270 pf=0.92 kW=1.201361 Daily=RES-Tipo2
New Load.BT_2411366_1 Bus1=2411366-8902279.1.4 Phases=1 Model=8 zipv=(0.5,0,0.5,1,0,0,0) kv=0.1100 pf=0.92 kW=0.072781 Daily=RUR-Tipo2
New Load.BT_2411366_2 Bus1=2411366-8902279.2.4 Phases=1 Model=8 zipv=(0.5,0,0.5,1,0,0,0) kv=0.1100 pf=0.92 kW=0.072781 Daily=RUR-Tipo2
New Load.BT_2412104_1 Bus1=2412104-8906217.1.4 Phases=1 Model=8 zipv=(0.5,0,0.5,1,0,0,0) kv=0.1270 pf=0.92 kW=0.497553 Daily=RES-Tipo2
New Load.BT_2412104_2 Bus1=2412104-8906217.2.4 Phases=1 Model=8 zipv=(0.5,0,0.5,1,0,0,0) kv=0.1270 pf=0.92 kW=0.497553 Daily=RES-Tipo2
New Load.BT_2412104_3 Bus1=2412104-8906217.3.4 Phases=1 Model=8 zipv=(0.5,0,0.5,1,0,0,0) kv=0.1270 pf=0.92 kW=0.497553 Daily=RES-Tipo2
New Load.BT_2411232_1 Bus1=2411232-8903748.1.4 Phases=1 Model=8 zipv=(0.5,0,0.5,1,0,0,0) kv=0.1100 pf=0.92 kW=0.389342 Daily=RES-Tipo2
New Load.BT_2411232_2 Bus1=2411232-8903748.2.4 Phases=1 Model=8 zipv=(0.5,0,0.5,1,0,0,0) kv=0.1100 pf=0.92 kW=0.389342 Daily=RES-Tipo2
New Load.BT_2411868_1 Bus1=2411868-8900564v.1.4 Phases=1 Model=8 zipv=(0.5,0,0.5,1,0,0,0) kv=0.1100 pf=0.92 kW=0.062329 Daily=RUR-Tipo2
New Load.BT_2411868_2 Bus1=2411868-8900564v.2.4 Phases=1 Model=8 zipv=(0.5,0,0.5,1,0,0,0) kv=0.1100 pf=0.92 kW=0.062329 Daily=RUR-Tipo2
New Load.BT_2411437_1 Bus1=2411437-8901054v.1.4 Phases=1 Model=8 zipv=(0.5,0,0.5,1,0,0,0) kv=0.1100 pf=0.92 kW=0.035260 Daily=RES-Tipo3
New Load.BT_2411437_2 Bus1=2411437-8901054v.2.4 Phases=1 Model=8 zipv=(0.5,0,0.5,1,0,0,0) kv=0.1100 pf=0.92 kW=0.035260 Daily=RES-Tipo3
New Load.BT_2411466_1 Bus1=2411466-8903745v.1.4 Phases=1 Model=8 zipv=(0.5,0,0.5,1,0,0,0) kv=0.1100 pf=0.92 kW=0.283295 Daily=RUR-Tipo3
New Load.BT_2411466_2 Bus1=2411466-8903745v.2.4 Phases=1 Model=8 zipv=(0.5,0,0.5,1,0,0,0) kv=0.1100 pf=0.92 kW=0.283295 Daily=RUR-Tipo3
New Load.BT_2411091_1 Bus1=2411091-8904198v.1.4 Phases=1 Model=8 zipv=(0.5,0,0.5,1,0,0,0) kv=0.1100 pf=0.92 kW=0.020548 Daily=RUR-Tipo2
New Load.BT_2411091_2 Bus1=2411091-8904198v.2.4 Phases=1 Model=8 zipv=(0.5,0,0.5,1,0,0,0) kv=0.1100 pf=0.92 kW=0.020548 Daily=RUR-Tipo2
New Load.BT_2412002_1 Bus1=2412002-8899727.1.4 Phases=1 Model=8 zipv=(0.5,0,0.5,1,0,0,0) kv=0.1100 pf=0.92 kW=0.642199 Daily=RES-Tipo6
New Load.BT_2412002_2 Bus1=2412002-8899727.2.4 Phases=1 Model=8 zipv=(0.5,0,0.5,1,0,0,0) kv=0.1100 pf=0.92 kW=0.642199 Daily=RES-Tipo6
New Load.BT_2410949_1 Bus1=2410949-8904922.1.4 Phases=1 Model=8 zipv=(0.5,0,0.5,1,0,0,0) kv=0.1100 pf=0.92 kW=0.063521 Daily=RES-Tipo3
New Load.BT_2410949_2 Bus1=2410949-8904922.2.4 Phases=1 Model=8 zipv=(0.5,0,0.5,1,0,0,0) kv=0.1100 pf=0.92 kW=0.063521 Daily=RES-Tipo3
New Load.BT_2411004_1 Bus1=2411004-8900127v.1.4 Phases=1 Model=8 zipv=(0.5,0,0.5,1,0,0,0) kv=0.1100 pf=0.92 kW=0.164938 Daily=RUR-Tipo2
...

! --- cargas de media tensao (UCMT_tab) ---
New Load.MT_13137-8901359_0 Bus1=13137-8901359.1.2.3 Phases=3 Conn=wye Model=8 zipv=(0.5,0,0.5,1,0,0,0) kv=13.8000 pf=0.92 kW=27.0623 Daily=MT-Tipo6
New Load.MT_19642-12388144_1 Bus1=19642-12388144.1.2.3 Phases=3 Conn=wye Model=8 zipv=(0.5,0,0.5,1,0,0,0) kv=13.8000 pf=0.92 kW=156.7238 Daily=MT-Tipo2
New Load.MT_13109-12396822_2 Bus1=13109-12396822.1.2.3 Phases=3 Conn=wye Model=8 zipv=(0.5,0,0.5,1,0,0,0) kv=13.8000 pf=0.92 kW=11.1004 Daily=MT-Tipo5
New Load.MT_13109-8840161_3 Bus1=13109-8840161.1.2.3 Phases=3 Conn=wye Model=8 zipv=(0.5,0,0.5,1,0,0,0) kv=13.8000 pf=0.92 kW=43.0882 Daily=MT-Tipo5
New Load.MT_13146-8955549_4 Bus1=13146-8955549.1.2.3 Phases=3 Conn=wye Model=8 zipv=(0.5,0,0.5,1,0,0,0) kv=13.8000 pf=0.92 kW=14.6553 Daily=MT-Tipo8
New Load.MT_19642-8840839_5 Bus1=19642-8840839.1.2.3 Phases=3 Conn=wye Model=8 zipv=(0.5,0,0.5,1,0,0,0) kv=13.8000 pf=0.92 kW=18.0580 Daily=MT-Tipo5
New Load.MT_13146-8955559_6 Bus1=13146-8955559.1.2.3 Phases=3 Conn=wye Model=8 zipv=(0.5,0,0.5,1,0,0,0) kv=13.8000 pf=0.92 kW=6.0114 Daily=MT-Tipo1
New Load.MT_13146-8955392_7 Bus1=13146-8955392.1.2.3 Phases=3 Conn=wye Model=8 zipv=(0.5,0,0.5,1,0,0,0) kv=13.8000 pf=0.92 kW=3.1422 Daily=MT-Tipo9
New Load.MT_13137-8901367_8 Bus1=13137-8901367.1.2.3 Phases=3 Conn=wye Model=8 zipv=(0.5,0,0.5,1,0,0,0) kv=13.8000 pf=0.92 kW=23.8694 Daily=MT-Tipo1
New Load.MT_13146-8955884_9 Bus1=13146-8955884.1.2.3 Phases=3 Conn=wye Model=8 zipv=(0.5,0,0.5,1,0,0,0) kv=13.8000 pf=0.92 kW=5.0333 Daily=MT-Tipo6
New Load.MT_13146-12804521_10 Bus1=13146-12804521.1.2.3 Phases=3 Conn=wye Model=8 zipv=(0.5,0,0.5,1,0,0,0) kv=13.8000 pf=0.92 kW=4.3822 Daily=MT-Tipo1
New Load.MT_13137-12802829_11 Bus1=13137-12802829.1.2.3 Phases=3 Conn=wye Model=8 zipv=(0.5,0,0.5,1,0,0,0) kv=13.8000 pf=0.92 kW=5.3031 Daily=MT-Tipo2
New Load.MT_13137-12675209_12 Bus1=13137-12675209.1.2.3 Phases=3 Conn=wye Model=8 zipv=(0.5,0,0.5,1,0,0,0) kv=13.8000 pf=0.92 kW=4.6639 Daily=MT-Tipo2
New Load.MT_13146-8956059_13 Bus1=13146-8956059.1.2.3 Phases=3 Conn=wye Model=8 zipv=(0.5,0,0.5,1,0,0,0) kv=13.8000 pf=0.92 kW=43.4767 Daily=MT-Tipo1
New Load.MT_13109-11978546_14 Bus1=13109-11978546.1.2.3 Phases=3 Conn=wye Model=8 zipv=(0.5,0,0.5,1,0,0,0) kv=13.8000 pf=0.92 kW=10.2812 Daily=MT-Tipo1
New Load.MT_13109-8840162_15 Bus1=13109-8840162.1.2.3 Phases=3 Conn=wye Model=8 zipv=(0.5,0,0.5,1,0,0,0) kv=13.8000 pf=0.92 kW=20.7185 Daily=MT-Tipo1
New Load.MT_13146-8955710_16 Bus1=13146-8955710.1.2.3 Phases=3 Conn=wye Model=8 zipv=(0.5,0,0.5,1,0,0,0) kv=13.8000 pf=0.92 kW=10.1910 Daily=MT-Tipo1
New Load.MT_13146-8955767_17 Bus1=13146-8955767.1.2.3 Phases=3 Conn=wye Model=8 zipv=(0.5,0,0.5,1,0,0,0) kv=13.8000 pf=0.92 kW=2.8160 Daily=MT-Tipo1
New Load.MT_13146-12172791_18 Bus1=13146-12172791.1.2.3 Phases=3 Conn=wye Model=8 zipv=(0.5,0,0.5,1,0,0,0) kv=13.8000 pf=0.92 kW=3.2627 Daily=MT-Tipo1
New Load.MT_13109-11967876_19 Bus1=13109-11967876.1.2.3 Phases=3 Conn=wye Model=8 zipv=(0.5,0,0.5,1,0,0,0) kv=13.8000 pf=0.92 kW=33.5669 Daily=MT-Tipo6
New Load.MT_13146-11979853_20 Bus1=13146-11979853.1.2.3 Phases=3 Conn=wye Model=8 zipv=(0.5,0,0.5,1,0,0,0) kv=13.8000 pf=0.92 kW=2.1326 Daily=MT-Tipo7
New Load.MT_13120-8862949_21 Bus1=13120-8862949.1.2.3 Phases=3 Conn=wye Model=8 zipv=(0.5,0,0.5,1,0,0,0) kv=13.8000 pf=0.92 kW=0.3745 Daily=MT-Tipo7
New Load.MT_13109-8841331_22 Bus1=13109-8841331.1.2.3 Phases=3 Conn=wye Model=8 zipv=(0.5,0,0.5,1,0,0,0) kv=13.8000 pf=0.92 kW=2.8865 Daily=MT-Tipo1
New Load.MT_13109-8840494_23 Bus1=13109-8840494.1.2.3 Phases=3 Conn=wye Model=8 zipv=(0.5,0,0.5,1,0,0,0) kv=13.8000 pf=0.92 kW=21.5574 Daily=MT-Tipo7
New Load.MT_13109-8840934_24 Bus1=13109-8840934.1.2.3 Phases=3 Conn=wye Model=8 zipv=(0.5,0,0.5,1,0,0,0) kv=13.8000 pf=0.92 kW=1.7094 Daily=MT-Tipo6
New Load.MT_13137-8907547_25 Bus1=13137-8907547.1.2.3 Phases=3 Conn=wye Model=8 zipv=(0.5,0,0.5,1,0,0,0) kv=13.8000 pf=0.92 kW=2.9322 Daily=MT-Tipo5
New Load.MT_13146-8955885_26 Bus1=13146-8955885.1.2.3 Phases=3 Conn=wye Model=8 zipv=(0.5,0,0.5,1,0,0,0) kv=13.8000 pf=0.92 kW=12.6204 Daily=MT-Tipo6
New Load.MT_13146-8955720_27 Bus1=13146-8955720.1.2.3 Phases=3 Conn=wye Model=8 zipv=(0.5,0,0.5,1,0,0,0) kv=13.8000 pf=0.92 kW=0.5791 Daily=MT-Tipo3
New Load.MT_13137-8908807_31 Bus1=13137-8908807.1.2.3 Phases=3 Conn=wye Model=8 zipv=(0.5,0,0.5,1,0,0,0) kv=13.8000 pf=0.92 kW=8.0834 Daily=MT-Tipo3
New Load.MT_13137-12227912_34 Bus1=13137-12227912.1.2.3 Phases=3 Conn=wye Model=8 zipv=(0.5,0,0.5,1,0,0,0) kv=13.8000 pf=0.92 kW=5.1316 Daily=MT-Tipo2
New Load.MT_13109-8841528_37 Bus1=13109-8841528.1.2.3 Phases=3 Conn=wye Model=8 zipv=(0.5,0,0.5,1,0,0,0) kv=13.8000 pf=0.92 kW=2.7206 Daily=MT-Tipo1
New Load.MT_13109-8840319_39 Bus1=13109-8840319.1.2.3 Phases=3 Conn=wye Model=8 zipv=(0.5,0,0.5,1,0,0,0) kv=13.8000 pf=0.92 kW=8.7270 Daily=MT-Tipo1
New Load.MT_19642-8840849_65 Bus1=19642-8840849.1.2.3 Phases=3 Conn=wye Model=8 zipv=(0.5,0,0.5,1,0,0,0) kv=13.8000 pf=0.92 kW=11.0095 Daily=MT-Tipo1
New Load.MT_13137-8903911_66 Bus1=13137-8903911.1.2.3 Phases=3 Conn=wye Model=8 zipv=(0.5,0,0.5,1,0,0,0) kv=13.8000 pf=0.92 kW=18.8852 Daily=MT-Tipo7
New Load.MT_19642-11555861_67 Bus1=19642-11555861.1.2.3 Phases=3 Conn=wye Model=8 zipv=(0.5,0,0.5,1,0,0,0) kv=13.8000 pf=0.92 kW=10.6978 Daily=MT-Tipo7
New Load.MT_13109-8841525_68 Bus1=13109-8841525.1.2.3 Phases=3 Conn=wye Model=8 zipv=(0.5,0,0.5,1,0,0,0) kv=13.8000 pf=0.92 kW=16.3110 Daily=MT-Tipo9
New Load.MT_13137-8906314_69 Bus1=13137-8906314.1.2.3 Phases=3 Conn=wye Model=8 zipv=(0.5,0,0.5,1,0,0,0) kv=13.8000 pf=0.92 kW=2.0627 Daily=MT-Tipo5
